SOLVER= RANS
KIND_TURB_MODEL= SA
KIND_TRANS_MODEL= NONE
HROUGHNESS= 1.0e-4
MATH_PROBLEM= DIRECT
AXISYMMETRIC= NO
GRAVITY_FORCE= NO
SYSTEM_MEASUREMENTS= SI
ITER= 1
INNER_ITER= 9999
TIME_ITER= 1
CONV_FIELD= DRAG
HYBRID_RANSLES= SA_DDES
DES_CONST= 0.65
% -------------------- COMPRESSIBLE FREE-STREAM DEFINITION --------------------%
%
% Mach number (non-dimensional, based on the free-stream values)
MACH_NUMBER= 0.8
%
% Angle of attack (degrees, only for compressible flows)
AOA= 1.25
%
% Side-slip angle (degrees, only for compressible flows)
SIDESLIP_ANGLE= 0.0
%
% Init option to choose between Reynolds (default) or thermodynamics quantities
% for initializing the solution (REYNOLDS, TD_CONDITIONS)
INIT_OPTION= REYNOLDS
%
% Free-stream option to choose between density and temperature (default) for
% initializing the solution (TEMPERATURE_FS, DENSITY_FS)
FREESTREAM_OPTION= TEMPERATURE_FS
%
% Free-stream pressure (101325.0 N/m^2, 2116.216 psf by default)
FREESTREAM_PRESSURE= 101325.0
%
% Free-stream temperature (288.15 K, 518.67 R by default)
FREESTREAM_TEMPERATURE= 288.15
%
% Free-stream VIBRATIONAL temperature (288.15 K, 518.67 R by default)
FREESTREAM_TEMPERATURE_VE= 288.15
%
% Reynolds number (non-dimensional, based on the free-stream values)
REYNOLDS_NUMBER= 6.5E6
%
% Reynolds length (1 m, 1 inch by default)
REYNOLDS_LENGTH= 1.0
%
% Free-stream density (1.2886 Kg/m^3, 0.0025 slug/ft^3 by default)
FREESTREAM_DENSITY= 1.2886
%
% Free-stream velocity (1.0 m/s, 1.0 ft/s by default)
FREESTREAM_VELOCITY= ( 1.0, 0.00, 0.00 )
%
% Free-stream viscosity (1.853E-5 N s/m^2, 3.87E-7 lbf s/ft^2 by default)
FREESTREAM_VISCOSITY= 1.853E-5
%
% Free-stream turbulence intensity
FREESTREAM_TURBULENCEINTENSITY= 0.05
%
% Value for freestream intermittency
FREESTREAM_INTERMITTENCY= 1.0
%
% Fix turbulence quantities to far-field values inside an upstream half-space
TURB_FIXED_VALUES= NO
%
% Shift of the half-space on which fixed values are applied.
% It consists of those coordinates whose dot product with the
% normalized far-field velocity is less than this parameter.
TURB_FIXED_VALUES_DOMAIN= -1.0
%
% Free-stream ratio between turbulent and laminar viscosity
FREESTREAM_TURB2LAMVISCRATIO= 10.0

% Convective numerical method (SCALAR_UPWIND, BOUNDED_SCALAR)
CONV_NUM_METHOD_TURB= SCALAR_UPWIND
%
% Time discretization (EULER_IMPLICIT, EULER_EXPLICIT)
TIME_DISCRE_TURB= EULER_IMPLICIT
%
% Reduction factor of the CFL coefficient in the turbulence problem
CFL_REDUCTION_TURB= 1.0
MARKER_FAR=(wall)
%MARKER_ISOTHERMAL=(top_bottome,300.0)
WALLMODEL_KAPPA= 0.41
WALLMODEL_B= 5.5
WALLMODEL_MINYPLUS= 5.0
WALLMODEL_MAXITER= 200
WALLMODEL_RELFAC= 0.5
CONV_NUM_METHOD_FLOW= ROE
ROE_LOW_DISSIPATION= FD
FREESTREAM_NU_FACTOR= 3
INLET_TYPE= MASS_FLOW
MARKER_INLET = (inlet, 1.13, 20, 3.0, 0.0, 0.0)
%MARKER_INLET_TURBULENT= (inlet, 3.0)
INC_OUTLET_TYPE= MASS_FLOW_OUTLET
MARKER_OUTLET = (outlet, 1e1)
%
SCREEN_OUTPUT= (INNER_ITER, RMS_DENSITY, RMS_MOMENTUM-X, RMS_MOMENTUM-Y, RMS_ENERGY)
%
% Writing frequency for screen output
SCREEN_WRT_FREQ_INNER= 1
%
SCREEN_WRT_FREQ_OUTER= 1
%
SCREEN_WRT_FREQ_TIME= 1
OUTPUT_WRT_FREQ= 10, 250, 42

MESH_FILENAME= v_mesh.su2
MESH_FORMAT= SU2
MESH_BOX_SIZE= (33, 33, 33)
%
% List of the length of the RECTANGLE or BOX grid in the x,y,z directions. (default: (1.0,1.0,1.0) ).
MESH_BOX_LENGTH= (1.0, 1.0, 1.0)
%
% List of the offset from 0.0 of the RECTANGLE or BOX grid in the x,y,z directions. (default: (0.0,0.0,0.0) ).
MESH_BOX_OFFSET= (0.0, 0.0, 0.0)
%
% Mesh output file
MESH_OUT_FILENAME= mesh_out.su2
%
% Restart flow input file
SOLUTION_FILENAME= solution_flow.dat
%
% Restart adjoint input file
SOLUTION_ADJ_FILENAME= solution_adj.dat
%
% Output tabular file format (TECPLOT, CSV)
TABULAR_FORMAT= CSV
%
% Set <ofstream>.precision(value) to specified value for SU2_DOT and HISTORY output. Useful for exact gradient validation.
OUTPUT_PRECISION= 10
%
% Files to output
% Possible formats : (TECPLOT_ASCII, TECPLOT, SURFACE_TECPLOT_ASCII,
%  SURFACE_TECPLOT, CSV, SURFACE_CSV, PARAVIEW_ASCII, PARAVIEW_LEGACY, SURFACE_PARAVIEW_ASCII,
%  SURFACE_PARAVIEW_LEGACY, PARAVIEW, SURFACE_PARAVIEW, RESTART_ASCII, RESTART, CGNS, SURFACE_CGNS, STL_ASCII, STL_BINARY)
% default : (RESTART, PARAVIEW, SURFACE_PARAVIEW)
OUTPUT_FILES= (RESTART, PARAVIEW, SURFACE_PARAVIEW)
%
% Output file convergence history (w/o extension)
CONV_FILENAME= history
%
